FoamFile
{
    version     2.0;
    format      ascii;
    arch        "LSB;label=32;scalar=64";
    class       polyBoundaryMesh;
    location    "constant/polyMesh";
    object      boundary;
}

3
(
    movingWall
    {
        type            wall;
        inGroups        1(wall);
        nFaces          100;
        startFace       4079;
    }
    fixedWalls
    {
        type            wall;
        inGroups        1(wall);
        nFaces          142;
        startFace       4179;
    }
    frontAndBack
    {
        type            empty;
        inGroups        1(empty);
        nFaces          4200;
        startFace       4321;
    }
)
